Info: SIMULATION PARAMETERS:
Info: TIMESTEP               1
Info: NUMBER OF STEPS        0
Info: STEPS PER CYCLE        20
Info: FIRST LDB TIMESTEP     100
Info: LAST LDB TIMESTEP     -1
Info: HOM BACKGROUND SCALING 1
Info: MIN ATOMS PER PATCH    40
Info: INITIAL TEMPERATURE    300
Info: CENTER OF MASS MOVING INITIALLY? NO
Info: DIELECTRIC             1
Info: EXCLUDE                SCALED ONE-FOUR
Info: 1-4 ELECTROSTATICS SCALED BY 1
Info: MODIFIED 1-4 VDW PARAMETERS WILL BE USED
Info: DCD FILENAME           check_dimer/minimization/min_00001.dcd
Info: DCD FREQUENCY          20
Info: DCD FIRST STEP         20
Info: NO EXTENDED SYSTEM TRAJECTORY OUTPUT
Info: NO VELOCITY DCD OUTPUT
Info: NO FORCE DCD OUTPUT
Info: OUTPUT FILENAME        junk
Info: BINARY OUTPUT FILES WILL BE USED
Info: NO RESTART FILE
Info: SWITCHING ACTIVE
Info: SWITCHING ON           8
Info: SWITCHING OFF          10
Info: PAIRLIST DISTANCE      12
Info: PAIRLIST SHRINK RATE   0.01
Info: PAIRLIST GROW RATE     0.01
Info: PAIRLIST TRIGGER       0.3
Info: PAIRLISTS PER CYCLE    2
Info: PAIRLISTS ENABLED
Info: MARGIN                 2
Info: HYDROGEN GROUP CUTOFF  2.5
Info: PATCH DIMENSION        16.5
Info: ENERGY OUTPUT STEPS    10
Info: CROSSTERM ENERGY INCLUDED IN DIHEDRAL
Info: TIMING OUTPUT STEPS    100
Info: LANGEVIN DYNAMICS ACTIVE
Info: LANGEVIN TEMPERATURE   300
Info: LANGEVIN DAMPING COEFFICIENT IS 1 INVERSE PS
Info: LANGEVIN DYNAMICS APPLIED TO HYDROGENS
Info: USING VERLET I (r-RESPA) MTS SCHEME.
Info: C1 SPLITTING OF LONG RANGE ELECTROSTATICS
Info: PLACING ATOMS IN PATCHES BY HYDROGEN GROUPS
Info: RIGID BONDS TO HYDROGEN : ALL
Info:         ERROR TOLERANCE : 1e-05
Info:          MAX ITERATIONS : 500
Info: RIGID WATER USING SETTLE ALGORITHM
Info: NONBONDED FORCES EVALUATED EVERY 2 STEPS
Info: RANDOM NUMBER SEED     1423190137
Info: USE HYDROGEN BONDS?    NO
Info: COORDINATE PDB         check_dimer/minimization/junk.pdb
Info: STRUCTURE FILE         check_dimer/minimization/dimer.psf
Info: PARAMETER file: CHARMM format!
Info: PARAMETERS             /usr/local/bin/toppar/par_all27_prot_na.inp
Info: USING ARITHMETIC MEAN TO COMBINE L-J SIGMA PARAMETERS
Info: SUMMARY OF PARAMETERS:
Info: 253 BONDS
Info: 628 ANGLES
Info: 1057 DIHEDRAL
Info: 73 IMPROPER
Info: 0 CROSSTERM
Info: 130 VDW
Info: 0 VDW_PAIRS
Info: 0 NBTHOLE_PAIRS
Info: STRUCTURE SUMMARY:
Info: 53568 ATOMS
Info: 55462 BONDS
Info: 100730 ANGLES
Info: 146518 DIHEDRALS
Info: 6882 IMPROPERS
Info: 0 CROSSTERMS
Info: 0 EXCLUSIONS
Info: 24162 RIGID BONDS
Info: 136542 DEGREES OF FREEDOM
Info: 29406 HYDROGEN GROUPS
Info: 4 ATOMS IN LARGEST HYDROGEN GROUP
Info: 29406 MIGRATION GROUPS
Info: 4 ATOMS IN LARGEST MIGRATION GROUP
Info: TOTAL MASS = 429763 amu
Info: TOTAL CHARGE = -400 e
Info: REMOVING COM VELOCITY 0.0110271 0.027971 0.00260576
Info: NONBONDED TABLE R-SQUARED SPACING: 0.0625
Info: NONBONDED TABLE SIZE: 705 POINTS
TCL: Minimizing for 2000 steps
ETITLE: TS BOND ANGLE DIHED IMPRP ELECT VDW BOUNDARY MISC KINETIC TOTAL TEMP POTENTIAL TOTAL3 TEMPAVG
ENERGY: 0 78556.5962 40314.3745 28585.8872 66.5959 -124650.1259 9999999999.9999 0.0000 0.0000 0.0000 9999999999.9999 0.0000 9999999999.9999 9999999999.9999 0.0000
ENERGY: 400 4388.5536 17747.1466 30125.4868 605.1718 -154769.6027 -9028.9942 0.0000 0.0000 0.0000 -110932.2381 0.0000 -110932.2381 -110932.2381 0.0000
ENERGY: 800 4345.3333 17455.9709 30375.2924 567.0574 -163005.7855 -8270.6340 0.0000 0.0000 0.0000 -118532.7654 0.0000 -118532.7654 -118532.7654 0.0000
ENERGY: 1200 4428.5368 17494.4244 30582.6317 567.4162 -167474.3705 -8237.2362 0.0000 0.0000 0.0000 -122638.5976 0.0000 -122638.5976 -122638.5976 0.0000
ENERGY: 1600 4371.1632 17496.7388 30586.7171 558.2219 -169840.8809 -8261.4399 0.0000 0.0000 0.0000 -125089.4799 0.0000 -125089.4799 -125089.4799 0.0000
ENERGY: 2000 4381.6306 17565.4923 30656.2145 565.4858 -171604.7895 -8239.4726 0.0000 0.0000 0.0000 -126675.4390 0.0000 -126675.4390 -126675.4390 0.0000
TCL: Running for 100 steps
ETITLE: TS BOND ANGLE DIHED IMPRP ELECT VDW BOUNDARY MISC KINETIC TOTAL TEMP POTENTIAL TOTAL3 TEMPAVG
ENERGY: 2000 4057.6660 17568.1351 30661.9415 565.5122 -170994.8813 -8196.7418 0.0000 0.0000 0.0001 -126338.3683 0.0000 -126338.3684 -126392.2223 0.0000
ENERGY: 2020 4152.8144 17816.8302 30706.9671 585.4303 -170853.4516 -8197.6284 0.0000 0.0000 1069.6662 -124719.3717 7.8845 -125789.0379 -124728.9033 6.3041
ENERGY: 2040 4314.2420 18179.4978 30764.7155 605.6857 -170812.9564 -8149.9920 0.0000 0.0000 1949.4233 -123149.3842 14.3691 -125098.8075 -123156.9851 12.9245
ENERGY: 2060 4475.3271 18643.7333 30840.1505 627.5352 -170809.3742 -8143.1409 0.0000 0.0000 2764.4218 -121601.3472 20.3764 -124365.7690 -121603.0796 19.0187
ENERGY: 2080 4675.9734 18997.0726 30908.1786 649.5894 -170727.7083 -8154.8183 0.0000 0.0000 3575.5029 -120076.2098 26.3549 -123651.7126 -120079.5634 25.0432
ENERGY: 2100 4851.3111 19438.8539 31003.6235 672.0470 -170788.4564 -8103.4264 0.0000 0.0000 4335.7886 -118590.2587 31.9589 -122926.0472 -118591.4266 30.8560
TCL: Minimizing for 2000 steps
ETITLE: TS BOND ANGLE DIHED IMPRP ELECT VDW BOUNDARY MISC KINETIC TOTAL TEMP POTENTIAL TOTAL3 TEMPAVG
ENERGY: 2100 4851.3111 19438.8539 31003.6235 672.0470 -170788.4564 -8103.4264 0.0000 0.0000 0.0000 -122926.0472 0.0000 -122926.0472 -122873.0384 0.0000
ENERGY: 2500 4365.0423 17451.8746 30614.0280 567.0423 -172212.1454 -8302.2012 0.0000 0.0000 0.0000 -127516.3595 0.0000 -127516.3595 -127516.3595 0.0000
ENERGY: 2900 4374.6600 17481.2148 30629.5942 570.0965 -172914.5217 -8300.7883 0.0000 0.0000 0.0000 -128159.7445 0.0000 -128159.7445 -128159.7445 0.0000
ENERGY: 3300 4383.1029 17530.7630 30695.5805 570.6016 -173737.3948 -8282.6308 0.0000 0.0000 0.0000 -128839.9776 0.0000 -128839.9776 -128839.9776 0.0000
ENERGY: 3700 4361.8756 17484.9036 30676.9219 565.8161 -174163.4725 -8303.6615 0.0000 0.0000 0.0000 -129377.6168 0.0000 -129377.6168 -129377.6168 0.0000
ENERGY: 4100 4363.5471 17509.6910 30695.4428 567.4664 -174653.0838 -8310.3795 0.0000 0.0000 0.0000 -129827.3159 0.0000 -129827.3159 -129827.3159 0.0000
