Info: SIMULATION PARAMETERS:
Info: TIMESTEP               1
Info: NUMBER OF STEPS        0
Info: STEPS PER CYCLE        20
Info: FIRST LDB TIMESTEP     100
Info: LAST LDB TIMESTEP     -1
Info: HOM BACKGROUND SCALING 1
Info: MIN ATOMS PER PATCH    40
Info: INITIAL TEMPERATURE    300
Info: CENTER OF MASS MOVING INITIALLY? NO
Info: DIELECTRIC             1
Info: EXCLUDE                SCALED ONE-FOUR
Info: 1-4 ELECTROSTATICS SCALED BY 1
Info: MODIFIED 1-4 VDW PARAMETERS WILL BE USED
Info: DCD FILENAME           dimer_val/minimization/min_00001.dcd
Info: DCD FREQUENCY          20
Info: DCD FIRST STEP         20
Info: NO EXTENDED SYSTEM TRAJECTORY OUTPUT
Info: NO VELOCITY DCD OUTPUT
Info: NO FORCE DCD OUTPUT
Info: OUTPUT FILENAME        junk
Info: BINARY OUTPUT FILES WILL BE USED
Info: NO RESTART FILE
Info: SWITCHING ACTIVE
Info: SWITCHING ON           8
Info: SWITCHING OFF          10
Info: PAIRLIST DISTANCE      12
Info: PAIRLIST SHRINK RATE   0.01
Info: PAIRLIST GROW RATE     0.01
Info: PAIRLIST TRIGGER       0.3
Info: PAIRLISTS PER CYCLE    2
Info: PAIRLISTS ENABLED
Info: MARGIN                 2
Info: HYDROGEN GROUP CUTOFF  2.5
Info: PATCH DIMENSION        16.5
Info: ENERGY OUTPUT STEPS    10
Info: CROSSTERM ENERGY INCLUDED IN DIHEDRAL
Info: TIMING OUTPUT STEPS    100
Info: LANGEVIN DYNAMICS ACTIVE
Info: LANGEVIN TEMPERATURE   300
Info: LANGEVIN DAMPING COEFFICIENT IS 1 INVERSE PS
Info: LANGEVIN DYNAMICS APPLIED TO HYDROGENS
Info: USING VERLET I (r-RESPA) MTS SCHEME.
Info: C1 SPLITTING OF LONG RANGE ELECTROSTATICS
Info: PLACING ATOMS IN PATCHES BY HYDROGEN GROUPS
Info: RIGID BONDS TO HYDROGEN : ALL
Info:         ERROR TOLERANCE : 1e-05
Info:          MAX ITERATIONS : 500
Info: RIGID WATER USING SETTLE ALGORITHM
Info: NONBONDED FORCES EVALUATED EVERY 2 STEPS
Info: RANDOM NUMBER SEED     1426187848
Info: USE HYDROGEN BONDS?    NO
Info: COORDINATE PDB         dimer_val/minimization/junk.pdb
Info: STRUCTURE FILE         dimer_val/minimization/dimer.psf
Info: PARAMETER file: CHARMM format!
Info: PARAMETERS             /usr/local/bin/toppar/par_all27_prot_na.inp
Info: USING ARITHMETIC MEAN TO COMBINE L-J SIGMA PARAMETERS
Info: SUMMARY OF PARAMETERS:
Info: 253 BONDS
Info: 628 ANGLES
Info: 1057 DIHEDRAL
Info: 73 IMPROPER
Info: 0 CROSSTERM
Info: 130 VDW
Info: 0 VDW_PAIRS
Info: 0 NBTHOLE_PAIRS
Info: STRUCTURE SUMMARY:
Info: 53655 ATOMS
Info: 55580 BONDS
Info: 100933 ANGLES
Info: 146870 DIHEDRALS
Info: 6880 IMPROPERS
Info: 0 CROSSTERMS
Info: 0 EXCLUSIONS
Info: 24160 RIGID BONDS
Info: 136805 DEGREES OF FREEDOM
Info: 29495 HYDROGEN GROUPS
Info: 4 ATOMS IN LARGEST HYDROGEN GROUP
Info: 29495 MIGRATION GROUPS
Info: 4 ATOMS IN LARGEST MIGRATION GROUP
Info: TOTAL MASS = 430942 amu
Info: TOTAL CHARGE = -400 e
Info: REMOVING COM VELOCITY 0.00996862 -0.0277899 -0.0122992
Info: NONBONDED TABLE R-SQUARED SPACING: 0.0625
Info: NONBONDED TABLE SIZE: 705 POINTS
TCL: Minimizing for 2000 steps
ETITLE: TS BOND ANGLE DIHED IMPRP ELECT VDW BOUNDARY MISC KINETIC TOTAL TEMP POTENTIAL TOTAL3 TEMPAVG
ENERGY: 0 154010.3075 46654.9563 30267.3792 330.3537 -122511.5774 9999999999.9999 0.0000 0.0000 0.0000 9999999999.9999 0.0000 9999999999.9999 9999999999.9999 0.0000
ENERGY: 400 4498.7400 17201.2993 30536.6148 492.4431 -148780.2165 -10813.2985 0.0000 0.0000 0.0000 -106864.4179 0.0000 -106864.4179 -106864.4179 0.0000
ENERGY: 800 4445.8242 17256.9002 30968.8490 485.7392 -162069.0948 -10186.1042 0.0000 0.0000 0.0000 -119097.8865 0.0000 -119097.8865 -119097.8865 0.0000
ENERGY: 1200 4440.2013 17425.6371 31118.2938 493.1100 -167855.9728 -9883.6410 0.0000 0.0000 0.0000 -124262.3715 0.0000 -124262.3715 -124262.3715 0.0000
ENERGY: 1600 4473.9328 17602.7210 31208.5236 494.6910 -171148.1380 -9631.7779 0.0000 0.0000 0.0000 -127000.0474 0.0000 -127000.0474 -127000.0474 0.0000
ENERGY: 2000 4465.8754 17564.1486 31173.0114 490.8620 -172717.3045 -9607.1757 0.0000 0.0000 0.0000 -128630.5827 0.0000 -128630.5827 -128630.5827 0.0000
TCL: Running for 100 steps
ETITLE: TS BOND ANGLE DIHED IMPRP ELECT VDW BOUNDARY MISC KINETIC TOTAL TEMP POTENTIAL TOTAL3 TEMPAVG
ENERGY: 2000 4141.8408 17572.0556 31178.8699 491.4419 -172104.6369 -9569.3123 0.0000 0.0000 0.0001 -128289.7410 0.0000 -128289.7411 -128341.4049 0.0000
ENERGY: 2020 4237.4872 17882.7932 31226.7220 502.9036 -171943.3562 -9568.3308 0.0000 0.0000 994.1652 -126667.6158 7.3139 -127661.7810 -126675.4500 5.9008
ENERGY: 2040 4439.4697 18279.0540 31302.4610 531.0146 -171928.4022 -9538.0068 0.0000 0.0000 1833.2562 -125081.1536 13.4869 -126914.4098 -125089.6976 12.1303
ENERGY: 2060 4643.3884 18684.1511 31390.5148 554.2308 -171959.3440 -9477.5477 0.0000 0.0000 2634.3274 -123530.2791 19.3802 -126164.6065 -123533.9125 18.0861
ENERGY: 2080 4787.9883 19122.0149 31468.7809 567.4544 -171970.5889 -9410.0294 0.0000 0.0000 3419.5407 -122014.8393 25.1568 -125434.3799 -122015.9783 23.9142
ENERGY: 2100 4937.3182 19529.8924 31517.7676 587.0433 -171915.8249 -9383.6675 0.0000 0.0000 4199.9439 -120527.5269 30.8981 -124727.4709 -120525.7039 29.6179
TCL: Minimizing for 2000 steps
ETITLE: TS BOND ANGLE DIHED IMPRP ELECT VDW BOUNDARY MISC KINETIC TOTAL TEMP POTENTIAL TOTAL3 TEMPAVG
ENERGY: 2100 4937.3182 19529.8924 31517.7676 587.0433 -171915.8249 -9383.6675 0.0000 0.0000 0.0000 -124727.4709 0.0000 -124727.4709 -124676.9719 0.0000
ENERGY: 2500 4452.9234 17569.7538 31159.0641 487.0737 -173562.8902 -9536.6652 0.0000 0.0000 0.0000 -129430.7403 0.0000 -129430.7403 -129430.7403 0.0000
ENERGY: 2900 4474.3952 17575.1861 31168.6899 485.7220 -174148.6144 -9538.1351 0.0000 0.0000 0.0000 -129982.7562 0.0000 -129982.7562 -129982.7562 0.0000
ENERGY: 3300 4455.3542 17576.1272 31199.0807 484.6152 -175094.1503 -9494.0190 0.0000 0.0000 0.0000 -130872.9921 0.0000 -130872.9921 -130872.9921 0.0000
ENERGY: 3700 4464.9920 17606.4236 31211.3350 484.7927 -175855.9119 -9479.8400 0.0000 0.0000 0.0000 -131568.2086 0.0000 -131568.2086 -131568.2086 0.0000
ENERGY: 4100 4464.7924 17650.0013 31190.3815 484.9936 -176548.7990 -9505.0109 0.0000 0.0000 0.0000 -132263.6411 0.0000 -132263.6411 -132263.6411 0.0000
