Info: SIMULATION PARAMETERS:
Info: TIMESTEP               1
Info: NUMBER OF STEPS        0
Info: STEPS PER CYCLE        20
Info: FIRST LDB TIMESTEP     100
Info: LAST LDB TIMESTEP     -1
Info: HOM BACKGROUND SCALING 1
Info: MIN ATOMS PER PATCH    40
Info: INITIAL TEMPERATURE    300
Info: CENTER OF MASS MOVING INITIALLY? NO
Info: DIELECTRIC             1
Info: EXCLUDE                SCALED ONE-FOUR
Info: 1-4 ELECTROSTATICS SCALED BY 1
Info: MODIFIED 1-4 VDW PARAMETERS WILL BE USED
Info: DCD FILENAME           c11_val/minimization/min_00001.dcd
Info: DCD FREQUENCY          20
Info: DCD FIRST STEP         20
Info: NO EXTENDED SYSTEM TRAJECTORY OUTPUT
Info: NO VELOCITY DCD OUTPUT
Info: NO FORCE DCD OUTPUT
Info: OUTPUT FILENAME        junk
Info: BINARY OUTPUT FILES WILL BE USED
Info: NO RESTART FILE
Info: SWITCHING ACTIVE
Info: SWITCHING ON           8
Info: SWITCHING OFF          10
Info: PAIRLIST DISTANCE      12
Info: PAIRLIST SHRINK RATE   0.01
Info: PAIRLIST GROW RATE     0.01
Info: PAIRLIST TRIGGER       0.3
Info: PAIRLISTS PER CYCLE    2
Info: PAIRLISTS ENABLED
Info: MARGIN                 2
Info: HYDROGEN GROUP CUTOFF  2.5
Info: PATCH DIMENSION        16.5
Info: ENERGY OUTPUT STEPS    10
Info: CROSSTERM ENERGY INCLUDED IN DIHEDRAL
Info: TIMING OUTPUT STEPS    100
Info: LANGEVIN DYNAMICS ACTIVE
Info: LANGEVIN TEMPERATURE   300
Info: LANGEVIN DAMPING COEFFICIENT IS 1 INVERSE PS
Info: LANGEVIN DYNAMICS APPLIED TO HYDROGENS
Info: USING VERLET I (r-RESPA) MTS SCHEME.
Info: C1 SPLITTING OF LONG RANGE ELECTROSTATICS
Info: PLACING ATOMS IN PATCHES BY HYDROGEN GROUPS
Info: RIGID BONDS TO HYDROGEN : ALL
Info:         ERROR TOLERANCE : 1e-05
Info:          MAX ITERATIONS : 500
Info: RIGID WATER USING SETTLE ALGORITHM
Info: NONBONDED FORCES EVALUATED EVERY 2 STEPS
Info: RANDOM NUMBER SEED     1426269883
Info: USE HYDROGEN BONDS?    NO
Info: COORDINATE PDB         c11_val/minimization/junk.pdb
Info: STRUCTURE FILE         c11_val/minimization/c11.psf
Info: PARAMETER file: CHARMM format!
Info: PARAMETERS             /usr/local/bin/toppar/par_all27_prot_na.inp
Info: USING ARITHMETIC MEAN TO COMBINE L-J SIGMA PARAMETERS
Info: SUMMARY OF PARAMETERS:
Info: 253 BONDS
Info: 628 ANGLES
Info: 1057 DIHEDRAL
Info: 73 IMPROPER
Info: 0 CROSSTERM
Info: 130 VDW
Info: 0 VDW_PAIRS
Info: 0 NBTHOLE_PAIRS
Info: STRUCTURE SUMMARY:
Info: 106992 ATOMS
Info: 110819 BONDS
Info: 201248 ANGLES
Info: 292842 DIHEDRALS
Info: 13735 IMPROPERS
Info: 0 CROSSTERMS
Info: 0 EXCLUSIONS
Info: 48201 RIGID BONDS
Info: 272775 DEGREES OF FREEDOM
Info: 58791 HYDROGEN GROUPS
Info: 4 ATOMS IN LARGEST HYDROGEN GROUP
Info: 58791 MIGRATION GROUPS
Info: 4 ATOMS IN LARGEST MIGRATION GROUP
Info: TOTAL MASS = 858929 amu
Info: TOTAL CHARGE = -792 e
Info: REMOVING COM VELOCITY -0.0281589 0.000949665 0.0266274
Info: NONBONDED TABLE R-SQUARED SPACING: 0.0625
Info: NONBONDED TABLE SIZE: 705 POINTS
TCL: Minimizing for 2000 steps
ETITLE: TS BOND ANGLE DIHED IMPRP ELECT VDW BOUNDARY MISC KINETIC TOTAL TEMP POTENTIAL TOTAL3 TEMPAVG
ENERGY: 0 321197.1759 91357.1104 60267.9927 664.9821 -246892.5302 9999999999.9999 0.0000 0.0000 0.0000 9999999999.9999 0.0000 9999999999.9999 9999999999.9999 0.0000
ENERGY: 400 11704.3876 36666.6893 60589.7814 932.1861 -282622.0020 -17841.2324 0.0000 0.0000 0.0000 -190570.1899 0.0000 -190570.1899 -190570.1899 0.0000
ENERGY: 800 9221.2942 34833.4290 60996.0926 1004.8077 -304273.6015 -21401.8140 0.0000 0.0000 0.0000 -219619.7920 0.0000 -219619.7920 -219619.7920 0.0000
ENERGY: 1200 8944.5640 34646.0412 61831.8982 992.8997 -323521.7112 -20334.0904 0.0000 0.0000 0.0000 -237440.3985 0.0000 -237440.3985 -237440.3985 0.0000
ENERGY: 1600 9005.2944 34748.0065 61818.5252 956.8043 -333463.8827 -19940.0052 0.0000 0.0000 0.0000 -246875.2574 0.0000 -246875.2574 -246875.2574 0.0000
ENERGY: 2000 8884.5067 34987.0388 62026.3710 960.6948 -341816.5377 -19417.4811 0.0000 0.0000 0.0000 -254375.4076 0.0000 -254375.4076 -254375.4076 0.0000
TCL: Running for 100 steps
ETITLE: TS BOND ANGLE DIHED IMPRP ELECT VDW BOUNDARY MISC KINETIC TOTAL TEMP POTENTIAL TOTAL3 TEMPAVG
ENERGY: 2000 8249.5302 35002.8304 62038.2151 961.7833 -340635.6255 -19339.3718 0.0000 0.0000 0.0001 -253722.6381 0.0000 -253722.6383 -253826.1522 0.0000
ENERGY: 2020 8447.1315 35579.6730 62106.0396 990.3778 -340344.3530 -19362.4569 0.0000 0.0000 2080.7001 -250502.8879 7.6771 -252583.5879 -250519.0108 6.1828
ENERGY: 2040 8830.9091 36344.5111 62273.8146 1050.6569 -340342.7144 -19367.5853 0.0000 0.0000 3875.5327 -247334.8752 14.2994 -251210.4080 -247349.8176 12.8035
ENERGY: 2060 9230.8412 37225.3933 62388.5279 1075.3322 -340400.7112 -19387.6514 0.0000 0.0000 5614.7552 -244253.5129 20.7165 -249868.2681 -244259.4950 19.2466
ENERGY: 2080 9501.0842 37937.0314 62518.6573 1122.4440 -340486.4257 -19183.0528 0.0000 0.0000 7344.3646 -241245.8970 27.0982 -248590.2617 -241250.7502 25.6805
ENERGY: 2100 9843.8801 38714.1875 62734.2575 1173.3772 -340752.2569 -19041.1539 0.0000 0.0000 9023.6542 -238304.0543 33.2942 -247327.7085 -238304.2733 31.9790
TCL: Minimizing for 2000 steps
ETITLE: TS BOND ANGLE DIHED IMPRP ELECT VDW BOUNDARY MISC KINETIC TOTAL TEMP POTENTIAL TOTAL3 TEMPAVG
ENERGY: 2100 9843.8801 38714.1875 62734.2575 1173.3772 -340752.2569 -19041.1539 0.0000 0.0000 0.0000 -247327.7085 0.0000 -247327.7085 -247226.0063 0.0000
ENERGY: 2500 8861.5281 34897.1327 61867.0704 949.9830 -344441.9715 -19510.1494 0.0000 0.0000 0.0000 -257376.4068 0.0000 -257376.4068 -257376.4068 0.0000
ENERGY: 2900 8896.9074 34996.5330 61821.8283 946.5930 -347474.1343 -19348.8137 0.0000 0.0000 0.0000 -260161.0863 0.0000 -260161.0863 -260161.0863 0.0000
ENERGY: 3300 8882.4349 34983.3651 61803.8152 947.9503 -349598.8714 -19251.9732 0.0000 0.0000 0.0000 -262233.2791 0.0000 -262233.2791 -262233.2791 0.0000
ENERGY: 3700 8907.3428 35127.1519 61853.7960 954.8765 -351468.9393 -19101.3620 0.0000 0.0000 0.0000 -263727.1341 0.0000 -263727.1341 -263727.1341 0.0000
ENERGY: 4100 8890.8465 35040.5127 61854.6377 954.2217 -352944.9177 -19141.8367 0.0000 0.0000 0.0000 -265346.5359 0.0000 -265346.5359 -265346.5359 0.0000
