Info: SIMULATION PARAMETERS:
Info: TIMESTEP               1
Info: NUMBER OF STEPS        0
Info: STEPS PER CYCLE        20
Info: FIRST LDB TIMESTEP     100
Info: LAST LDB TIMESTEP     -1
Info: HOM BACKGROUND SCALING 1
Info: MIN ATOMS PER PATCH    40
Info: INITIAL TEMPERATURE    300
Info: CENTER OF MASS MOVING INITIALLY? NO
Info: DIELECTRIC             1
Info: EXCLUDE                SCALED ONE-FOUR
Info: 1-4 ELECTROSTATICS SCALED BY 1
Info: MODIFIED 1-4 VDW PARAMETERS WILL BE USED
Info: DCD FILENAME           3x167_val/minimization/min_00001.dcd
Info: DCD FREQUENCY          50
Info: DCD FIRST STEP         50
Info: NO EXTENDED SYSTEM TRAJECTORY OUTPUT
Info: NO VELOCITY DCD OUTPUT
Info: NO FORCE DCD OUTPUT
Info: OUTPUT FILENAME        junk
Info: BINARY OUTPUT FILES WILL BE USED
Info: NO RESTART FILE
Info: SWITCHING ACTIVE
Info: SWITCHING ON           8
Info: SWITCHING OFF          10
Info: PAIRLIST DISTANCE      12
Info: PAIRLIST SHRINK RATE   0.01
Info: PAIRLIST GROW RATE     0.01
Info: PAIRLIST TRIGGER       0.3
Info: PAIRLISTS PER CYCLE    2
Info: PAIRLISTS ENABLED
Info: MARGIN                 2
Info: HYDROGEN GROUP CUTOFF  2.5
Info: PATCH DIMENSION        16.5
Info: ENERGY OUTPUT STEPS    10
Info: CROSSTERM ENERGY INCLUDED IN DIHEDRAL
Info: TIMING OUTPUT STEPS    100
Info: LANGEVIN DYNAMICS ACTIVE
Info: LANGEVIN TEMPERATURE   300
Info: LANGEVIN DAMPING COEFFICIENT IS 1 INVERSE PS
Info: LANGEVIN DYNAMICS APPLIED TO HYDROGENS
Info: USING VERLET I (r-RESPA) MTS SCHEME.
Info: C1 SPLITTING OF LONG RANGE ELECTROSTATICS
Info: PLACING ATOMS IN PATCHES BY HYDROGEN GROUPS
Info: RIGID BONDS TO HYDROGEN : ALL
Info:         ERROR TOLERANCE : 1e-05
Info:          MAX ITERATIONS : 500
Info: RIGID WATER USING SETTLE ALGORITHM
Info: NONBONDED FORCES EVALUATED EVERY 2 STEPS
Info: RANDOM NUMBER SEED     1426560235
Info: USE HYDROGEN BONDS?    NO
Info: COORDINATE PDB         3x167_val/minimization/junk.pdb
Info: STRUCTURE FILE         3x167_val/minimization/3x167.psf
Info: PARAMETER file: CHARMM format!
Info: PARAMETERS             /usr/local/bin/toppar/par_all27_prot_na.inp
Info: USING ARITHMETIC MEAN TO COMBINE L-J SIGMA PARAMETERS
Info: SUMMARY OF PARAMETERS:
Info: 253 BONDS
Info: 628 ANGLES
Info: 1057 DIHEDRAL
Info: 73 IMPROPER
Info: 0 CROSSTERM
Info: 130 VDW
Info: 0 VDW_PAIRS
Info: 0 NBTHOLE_PAIRS
Info: STRUCTURE SUMMARY:
Info: 80704 ATOMS
Info: 83610 BONDS
Info: 151836 ANGLES
Info: 220941 DIHEDRALS
Info: 10341 IMPROPERS
Info: 0 CROSSTERMS
Info: 0 EXCLUSIONS
Info: 36315 RIGID BONDS
Info: 205797 DEGREES OF FREEDOM
Info: 44389 HYDROGEN GROUPS
Info: 4 ATOMS IN LARGEST HYDROGEN GROUP
Info: 44389 MIGRATION GROUPS
Info: 4 ATOMS IN LARGEST MIGRATION GROUP
Info: TOTAL MASS = 648631 amu
Info: TOTAL CHARGE = -608 e
Info: REMOVING COM VELOCITY -0.00383903 -0.0407039 -0.0226344
Info: NONBONDED TABLE R-SQUARED SPACING: 0.0625
Info: NONBONDED TABLE SIZE: 705 POINTS
TCL: Minimizing for 2000 steps
ETITLE: TS BOND ANGLE DIHED IMPRP ELECT VDW BOUNDARY MISC KINETIC TOTAL TEMP POTENTIAL TOTAL3 TEMPAVG
ENERGY: 0 241508.4086 69353.7267 45666.6716 498.4214 -186088.2544 9999999999.9999 0.0000 0.0000 0.0000 9999999999.9999 0.0000 9999999999.9999 9999999999.9999 0.0000
ENERGY: 400 6865.8417 26365.8930 46372.0629 747.6376 -227459.2763 -16416.8014 0.0000 0.0000 0.0000 -163524.6424 0.0000 -163524.6424 -163524.6424 0.0000
ENERGY: 800 6773.5633 26061.1020 46617.6828 737.3069 -242778.4364 -15668.8928 0.0000 0.0000 0.0000 -178257.6743 0.0000 -178257.6743 -178257.6743 0.0000
ENERGY: 1200 6750.9721 26360.5801 46913.9452 730.2524 -253067.9669 -14911.0008 0.0000 0.0000 0.0000 -187223.2179 0.0000 -187223.2179 -187223.2179 0.0000
ENERGY: 1600 6737.0029 26513.1266 47045.7840 739.0765 -258656.6224 -14498.3090 0.0000 0.0000 0.0000 -192119.9415 0.0000 -192119.9415 -192119.9415 0.0000
ENERGY: 2000 6734.0361 26579.2249 46970.3100 720.9391 -261639.5451 -14422.4716 0.0000 0.0000 0.0000 -195057.5066 0.0000 -195057.5066 -195057.5066 0.0000
TCL: Running for 100 steps
ETITLE: TS BOND ANGLE DIHED IMPRP ELECT VDW BOUNDARY MISC KINETIC TOTAL TEMP POTENTIAL TOTAL3 TEMPAVG
ENERGY: 2000 6244.9190 26590.1925 46979.0251 721.6885 -260721.8208 -14364.0822 0.0000 0.0000 0.0001 -194550.0779 0.0000 -194550.0780 -194628.3300 0.0000
ENERGY: 2020 6406.0491 27051.8996 47037.7709 753.2872 -260552.7354 -14387.4140 0.0000 0.0000 1581.9301 -192109.2123 7.7364 -193691.1425 -192121.4177 6.2057
ENERGY: 2040 6733.9213 27575.4989 47164.2839 786.6610 -260528.0897 -14359.5748 0.0000 0.0000 2907.6842 -189719.6154 14.2200 -192627.2995 -189731.3164 12.7881
ENERGY: 2060 6928.2394 28231.6905 47247.1813 818.0349 -260409.8078 -14355.3428 0.0000 0.0000 4122.8306 -187417.1738 20.1626 -191540.0044 -187425.6537 18.8749
ENERGY: 2080 7193.7162 28738.1237 47387.1675 845.4335 -260367.4156 -14263.2843 0.0000 0.0000 5355.6136 -185110.6453 26.1915 -190466.2590 -185113.7581 24.8596
ENERGY: 2100 7455.2047 29342.5952 47491.4177 874.8146 -260369.2532 -14193.2662 0.0000 0.0000 6521.3587 -182877.1285 31.8926 -189398.4871 -182877.8898 30.6032
TCL: Minimizing for 2000 steps
ETITLE: TS BOND ANGLE DIHED IMPRP ELECT VDW BOUNDARY MISC KINETIC TOTAL TEMP POTENTIAL TOTAL3 TEMPAVG
ENERGY: 2100 7455.2047 29342.5952 47491.4177 874.8146 -260369.2532 -14193.2662 0.0000 0.0000 0.0000 -189398.4871 0.0000 -189398.4871 -189322.5282 0.0000
ENERGY: 2500 6701.6858 26439.4051 46874.3879 719.2227 -262844.0303 -14411.7852 0.0000 0.0000 0.0000 -196521.1139 0.0000 -196521.1139 -196521.1139 0.0000
ENERGY: 2900 6694.8606 26432.9699 46841.8407 720.5227 -263573.6372 -14435.0840 0.0000 0.0000 0.0000 -197318.5274 0.0000 -197318.5274 -197318.5274 0.0000
ENERGY: 3300 6713.2669 26500.9804 46842.0772 721.8281 -264409.4899 -14353.1951 0.0000 0.0000 0.0000 -197984.5325 0.0000 -197984.5325 -197984.5325 0.0000
ENERGY: 3700 6699.5791 26511.4102 46843.5612 718.3555 -265385.2040 -14385.6286 0.0000 0.0000 0.0000 -198997.9266 0.0000 -198997.9266 -198997.9266 0.0000
ENERGY: 4100 6707.9543 26523.1502 46813.1919 720.2287 -266174.0657 -14380.3185 0.0000 0.0000 0.0000 -199789.8591 0.0000 -199789.8591 -199789.8591 0.0000
